<edges>   
<!-- Layer1 -->
	<edge id="1-2" from="1" to="2" priority="25"  numLanes="3" speed="25" />
	<edge id="2-1" from="2" to="1" priority="25"  numLanes="3" speed="25" />
	<edge id="1-3" from="1" to="3" priority="25"  numLanes="3" speed="25" />
	<edge id="3-1" from="3" to="1" priority="25"  numLanes="3" speed="25" />
	<edge id="2-4" from="2" to="4" priority="25"  numLanes="3" speed="25" />
	<edge id="4-2" from="4" to="2" priority="25"  numLanes="3" speed="25" />
	<edge id="3-4" from="3" to="4" priority="25"  numLanes="3" speed="25" />
	<edge id="4-3" from="4" to="3" priority="25"  numLanes="3" speed="25" />
	<edge id="4-5" from="4" to="5" priority="25"  numLanes="3" speed="25" />
	<edge id="5-4" from="5" to="4" priority="25"  numLanes="3" speed="25" />
	<edge id="4-6" from="4" to="6" priority="25"  numLanes="3" speed="25" />
    <edge id="6-4" from="6" to="4" priority="25"  numLanes="3" speed="25" />
	<edge id="5-7" from="5" to="7" priority="25"  numLanes="3" speed="25" />
    <edge id="7-5" from="7" to="5" priority="25"  numLanes="3" speed="25" />
    <edge id="7-6" from="7" to="6" priority="25"  numLanes="3" speed="25" />
    <edge id="6-7" from="6" to="7" priority="25"  numLanes="3" speed="25" />


</edges>  

