<?xml version="1.0" encoding="UTF-8"?>

<!-- generated on Tue May 23 15:48:28 2017 by SUMO netconvert Version 0.29.0
<?xml version="1.0" encoding="UTF-8"?>

<configuration xmlns:xsi="http://www.w3.org/2001/XMLSchema-instance" xsi:noNamespaceSchemaLocation="http://sumo.dlr.de/xsd/netconvertConfiguration.xsd">

    <input>
        <node-files value="test.nod.xml"/>
        <edge-files value="test.edg.xml"/>
    </input>

    <output>
        <output-file value="test.net.xml"/>
    </output>

    <projection>
        <proj.utm value="true"/>
    </projection>

</configuration>
-->

<net version="0.27" xmlns:xsi="http://www.w3.org/2001/XMLSchema-instance" xsi:noNamespaceSchemaLocation="http://sumo.dlr.de/xsd/net_file.xsd">

    <location netOffset="-421653.26,1499.48" convBoundary="0.00,0.00,2998.97,2998.97" origBoundary="116.295935,-0.013565,116.322885,0.013565" projParameter="+proj=utm +zone=50 +ellps=WGS84 +datum=WGS84 +units=m +no_defs"/>

    <edge id=":1_0" function="internal">
        <lane id=":1_0_0" index="0" speed="50.00" length="31.85" shape="13.15,3010.52 2.35,3008.98 -5.37,3004.35 -10.00,2996.63 -11.55,2985.82"/>
        <lane id=":1_0_1" index="1" speed="50.00" length="31.85" shape="13.15,3007.22 3.79,3005.88 -2.90,3001.87 -6.91,2995.18 -8.25,2985.82"/>
        <lane id=":1_0_2" index="2" speed="50.00" length="31.85" shape="13.15,3003.92 5.23,3002.79 -0.42,2999.40 -3.82,2993.74 -4.95,2985.82"/>
        <lane id=":1_0_3" index="3" speed="50.00" length="31.85" shape="13.15,3000.62 6.68,2999.70 2.05,2996.92 -0.72,2992.30 -1.65,2985.82"/>
    </edge>
    <edge id=":1_4" function="internal">
        <lane id=":1_4_0" index="0" speed="50.00" length="2.69" shape="13.15,3000.62 11.91,2999.80 11.50,2998.97 11.63,2998.72"/>
    </edge>
    <edge id=":1_10" function="internal">
        <lane id=":1_10_0" index="0" speed="50.00" length="2.13" shape="11.63,2998.72 11.91,2998.15 13.15,2997.32"/>
    </edge>
    <edge id=":1_5" function="internal">
        <lane id=":1_5_0" index="0" speed="50.00" length="10.56" shape="11.55,2985.82 11.65,2986.52 11.95,2987.02 12.45,2987.32 13.15,2987.42"/>
        <lane id=":1_5_1" index="1" speed="50.00" length="10.56" shape="8.25,2985.82 8.56,2987.96 9.48,2989.50 11.01,2990.41 13.15,2990.72"/>
        <lane id=":1_5_2" index="2" speed="50.00" length="10.56" shape="4.95,2985.82 5.46,2989.41 7.00,2991.97 9.56,2993.51 13.15,2994.02"/>
        <lane id=":1_5_3" index="3" speed="50.00" length="10.56" shape="1.65,2985.82 2.37,2990.85 4.53,2994.45 8.12,2996.60 13.15,2997.32"/>
    </edge>
    <edge id=":1_9" function="internal">
        <lane id=":1_9_0" index="0" speed="50.00" length="2.20" shape="1.65,2985.82 0.83,2987.06 0.19,2987.38"/>
    </edge>
    <edge id=":1_11" function="internal">
        <lane id=":1_11_0" index="0" speed="50.00" length="2.62" shape="0.19,2987.38 0.00,2987.47 -0.82,2987.06 -1.65,2985.82"/>
    </edge>
    <edge id=":2_0" function="internal">
        <lane id=":2_0_0" index="0" speed="50.00" length="31.85" shape="1511.04,2985.82 1509.49,2996.62 1504.86,3004.34 1497.14,3008.97 1486.34,3010.52"/>
        <lane id=":2_0_1" index="1" speed="50.00" length="31.85" shape="1507.74,2985.82 1506.40,2995.18 1502.39,3001.87 1495.70,3005.88 1486.34,3007.22"/>
        <lane id=":2_0_2" index="2" speed="50.00" length="31.85" shape="1504.44,2985.82 1503.31,2993.73 1499.91,2999.39 1494.26,3002.78 1486.34,3003.92"/>
        <lane id=":2_0_3" index="3" speed="50.00" length="31.85" shape="1501.14,2985.82 1500.21,2992.29 1497.44,2996.92 1492.81,2999.69 1486.34,3000.62"/>
    </edge>
    <edge id=":2_4" function="internal">
        <lane id=":2_4_0" index="0" speed="50.00" length="2.69" shape="1501.14,2985.82 1500.31,2987.05 1499.49,2987.47 1499.24,2987.34"/>
    </edge>
    <edge id=":2_10" function="internal">
        <lane id=":2_10_0" index="0" speed="50.00" length="2.13" shape="1499.24,2987.34 1498.66,2987.05 1497.84,2985.82"/>
    </edge>
    <edge id=":2_5" function="internal">
        <lane id=":2_5_0" index="0" speed="50.00" length="10.56" shape="1486.34,2987.42 1487.04,2987.32 1487.54,2987.02 1487.84,2986.52 1487.94,2985.82"/>
        <lane id=":2_5_1" index="1" speed="50.00" length="10.56" shape="1486.34,2990.72 1488.48,2990.41 1490.01,2989.49 1490.93,2987.96 1491.24,2985.82"/>
        <lane id=":2_5_2" index="2" speed="50.00" length="10.56" shape="1486.34,2994.02 1489.93,2993.50 1492.49,2991.97 1494.03,2989.40 1494.54,2985.82"/>
        <lane id=":2_5_3" index="3" speed="50.00" length="10.56" shape="1486.34,2997.32 1491.37,2996.60 1494.96,2994.44 1497.12,2990.85 1497.84,2985.82"/>
    </edge>
    <edge id=":2_9" function="internal">
        <lane id=":2_9_0" index="0" speed="50.00" length="2.20" shape="1486.34,2997.32 1487.58,2998.14 1487.89,2998.78"/>
    </edge>
    <edge id=":2_11" function="internal">
        <lane id=":2_11_0" index="0" speed="50.00" length="2.62" shape="1487.89,2998.78 1487.99,2998.97 1487.58,2999.79 1486.34,3000.62"/>
    </edge>
    <edge id=":3_0" function="internal">
        <lane id=":3_0_0" index="0" speed="50.00" length="31.85" shape="-11.55,1512.63 -10.01,1501.83 -5.37,1494.11 2.34,1489.48 13.15,1487.93"/>
        <lane id=":3_0_1" index="1" speed="50.00" length="31.85" shape="-8.25,1512.63 -6.91,1503.27 -2.90,1496.58 3.79,1492.57 13.15,1491.23"/>
        <lane id=":3_0_2" index="2" speed="50.00" length="31.85" shape="-4.95,1512.63 -3.82,1504.71 -0.42,1499.06 5.23,1495.66 13.15,1494.53"/>
        <lane id=":3_0_3" index="3" speed="50.00" length="31.85" shape="-1.65,1512.63 -0.72,1506.16 2.05,1501.53 6.68,1498.76 13.15,1497.83"/>
    </edge>
    <edge id=":3_4" function="internal">
        <lane id=":3_4_0" index="0" speed="50.00" length="2.69" shape="-1.65,1512.63 -0.82,1511.40 0.00,1510.98 0.25,1511.11"/>
    </edge>
    <edge id=":3_10" function="internal">
        <lane id=":3_10_0" index="0" speed="50.00" length="2.13" shape="0.25,1511.11 0.83,1511.40 1.65,1512.63"/>
    </edge>
    <edge id=":3_5" function="internal">
        <lane id=":3_5_0" index="0" speed="50.00" length="10.56" shape="13.15,1511.03 12.45,1511.13 11.95,1511.43 11.65,1511.93 11.55,1512.63"/>
        <lane id=":3_5_1" index="1" speed="50.00" length="10.56" shape="13.15,1507.73 11.01,1508.04 9.48,1508.96 8.56,1510.49 8.25,1512.63"/>
        <lane id=":3_5_2" index="2" speed="50.00" length="10.56" shape="13.15,1504.43 9.56,1504.95 7.00,1506.48 5.46,1509.05 4.95,1512.63"/>
        <lane id=":3_5_3" index="3" speed="50.00" length="10.56" shape="13.15,1501.13 8.12,1501.85 4.53,1504.01 2.37,1507.60 1.65,1512.63"/>
    </edge>
    <edge id=":3_9" function="internal">
        <lane id=":3_9_0" index="0" speed="50.00" length="2.20" shape="13.15,1501.13 11.91,1500.31 11.59,1499.67"/>
    </edge>
    <edge id=":3_11" function="internal">
        <lane id=":3_11_0" index="0" speed="50.00" length="2.62" shape="11.59,1499.67 11.50,1499.48 11.91,1498.66 13.15,1497.83"/>
    </edge>
    <edge id=":4_0" function="internal">
        <lane id=":4_0_0" index="0" speed="50.00" length="5.00" shape="1487.94,1514.13 1487.74,1512.78 1487.16,1511.81 1486.19,1511.23 1484.84,1511.03"/>
    </edge>
    <edge id=":4_1" function="internal">
        <lane id=":4_1_0" index="0" speed="50.00" length="29.30" shape="1487.94,1514.13 1487.94,1484.83"/>
        <lane id=":4_1_1" index="1" speed="50.00" length="29.30" shape="1491.24,1514.13 1491.24,1484.83"/>
        <lane id=":4_1_2" index="2" speed="50.00" length="29.30" shape="1494.54,1514.13 1494.54,1484.83"/>
        <lane id=":4_1_3" index="3" speed="50.00" length="29.30" shape="1497.84,1514.13 1497.84,1484.83"/>
    </edge>
    <edge id=":4_5" function="internal">
        <lane id=":4_5_0" index="0" speed="50.00" length="8.53" shape="1497.84,1514.13 1498.86,1507.00 1499.54,1505.87"/>
    </edge>
    <edge id=":4_6" function="internal">
        <lane id=":4_6_0" index="0" speed="50.00" length="2.41" shape="1497.84,1514.13 1498.66,1512.90 1499.49,1512.48"/>
    </edge>
    <edge id=":4_28" function="internal">
        <lane id=":4_28_0" index="0" speed="50.00" length="17.76" shape="1499.54,1505.87 1501.91,1501.91 1507.01,1498.85 1514.14,1497.83"/>
    </edge>
    <edge id=":4_29" function="internal">
        <lane id=":4_29_0" index="0" speed="50.00" length="2.41" shape="1499.49,1512.48 1500.31,1512.90 1501.14,1514.13"/>
    </edge>
    <edge id=":4_7" function="internal">
        <lane id=":4_7_0" index="0" speed="50.00" length="5.00" shape="1514.14,1511.03 1512.78,1511.23 1511.81,1511.81 1511.23,1512.78 1511.04,1514.13"/>
    </edge>
    <edge id=":4_8" function="internal">
        <lane id=":4_8_0" index="0" speed="50.00" length="29.30" shape="1514.14,1511.03 1484.84,1511.03"/>
        <lane id=":4_8_1" index="1" speed="50.00" length="29.30" shape="1514.14,1507.73 1484.84,1507.73"/>
        <lane id=":4_8_2" index="2" speed="50.00" length="29.30" shape="1514.14,1504.43 1484.84,1504.43"/>
        <lane id=":4_8_3" index="3" speed="50.00" length="29.30" shape="1514.14,1501.13 1484.84,1501.13"/>
    </edge>
    <edge id=":4_12" function="internal">
        <lane id=":4_12_0" index="0" speed="50.00" length="8.53" shape="1514.14,1501.13 1507.01,1500.11 1505.87,1499.43"/>
    </edge>
    <edge id=":4_13" function="internal">
        <lane id=":4_13_0" index="0" speed="50.00" length="2.41" shape="1514.14,1501.13 1512.90,1500.31 1512.49,1499.48"/>
    </edge>
    <edge id=":4_30" function="internal">
        <lane id=":4_30_0" index="0" speed="50.00" length="17.76" shape="1505.87,1499.43 1501.91,1497.06 1498.86,1491.96 1497.84,1484.83"/>
    </edge>
    <edge id=":4_31" function="internal">
        <lane id=":4_31_0" index="0" speed="50.00" length="2.41" shape="1512.49,1499.48 1512.90,1498.66 1514.14,1497.83"/>
    </edge>
    <edge id=":4_14" function="internal">
        <lane id=":4_14_0" index="0" speed="50.00" length="5.00" shape="1511.04,1484.83 1511.23,1486.19 1511.81,1487.16 1512.78,1487.74 1514.14,1487.93"/>
    </edge>
    <edge id=":4_15" function="internal">
        <lane id=":4_15_0" index="0" speed="50.00" length="29.30" shape="1511.04,1484.83 1511.04,1514.13"/>
        <lane id=":4_15_1" index="1" speed="50.00" length="29.30" shape="1507.74,1484.83 1507.74,1514.13"/>
        <lane id=":4_15_2" index="2" speed="50.00" length="29.30" shape="1504.44,1484.83 1504.44,1514.13"/>
        <lane id=":4_15_3" index="3" speed="50.00" length="29.30" shape="1501.14,1484.83 1501.14,1514.13"/>
    </edge>
    <edge id=":4_19" function="internal">
        <lane id=":4_19_0" index="0" speed="50.00" length="8.53" shape="1501.14,1484.83 1500.12,1491.96 1499.44,1493.10"/>
    </edge>
    <edge id=":4_20" function="internal">
        <lane id=":4_20_0" index="0" speed="50.00" length="2.41" shape="1501.14,1484.83 1500.31,1486.07 1499.49,1486.48"/>
    </edge>
    <edge id=":4_32" function="internal">
        <lane id=":4_32_0" index="0" speed="50.00" length="17.76" shape="1499.44,1493.10 1497.06,1497.06 1491.97,1500.11 1484.84,1501.13"/>
    </edge>
    <edge id=":4_33" function="internal">
        <lane id=":4_33_0" index="0" speed="50.00" length="2.41" shape="1499.49,1486.48 1498.66,1486.07 1497.84,1484.83"/>
    </edge>
    <edge id=":4_21" function="internal">
        <lane id=":4_21_0" index="0" speed="50.00" length="5.00" shape="1484.84,1487.93 1486.19,1487.74 1487.16,1487.16 1487.74,1486.19 1487.94,1484.83"/>
    </edge>
    <edge id=":4_22" function="internal">
        <lane id=":4_22_0" index="0" speed="50.00" length="29.30" shape="1484.84,1487.93 1514.14,1487.93"/>
        <lane id=":4_22_1" index="1" speed="50.00" length="29.30" shape="1484.84,1491.23 1514.14,1491.23"/>
        <lane id=":4_22_2" index="2" speed="50.00" length="29.30" shape="1484.84,1494.53 1514.14,1494.53"/>
        <lane id=":4_22_3" index="3" speed="50.00" length="29.30" shape="1484.84,1497.83 1514.14,1497.83"/>
    </edge>
    <edge id=":4_26" function="internal">
        <lane id=":4_26_0" index="0" speed="50.00" length="8.53" shape="1484.84,1497.83 1491.97,1498.85 1493.10,1499.53"/>
    </edge>
    <edge id=":4_27" function="internal">
        <lane id=":4_27_0" index="0" speed="50.00" length="2.41" shape="1484.84,1497.83 1486.07,1498.66 1486.49,1499.48"/>
    </edge>
    <edge id=":4_34" function="internal">
        <lane id=":4_34_0" index="0" speed="50.00" length="17.76" shape="1493.10,1499.53 1497.06,1501.91 1500.12,1507.00 1501.14,1514.13"/>
    </edge>
    <edge id=":4_35" function="internal">
        <lane id=":4_35_0" index="0" speed="50.00" length="2.41" shape="1486.49,1499.48 1486.07,1500.31 1484.84,1501.13"/>
    </edge>
    <edge id=":5_0" function="internal">
        <lane id=":5_0_0" index="0" speed="50.00" length="31.85" shape="3010.52,1486.33 3008.97,1497.14 3004.34,1504.86 2996.62,1509.49 2985.82,1511.03"/>
        <lane id=":5_0_1" index="1" speed="50.00" length="31.85" shape="3007.22,1486.33 3005.88,1495.70 3001.87,1502.38 2995.18,1506.40 2985.82,1507.73"/>
        <lane id=":5_0_2" index="2" speed="50.00" length="31.85" shape="3003.92,1486.33 3002.79,1494.25 2999.39,1499.91 2993.74,1503.30 2985.82,1504.43"/>
        <lane id=":5_0_3" index="3" speed="50.00" length="31.85" shape="3000.62,1486.33 2999.69,1492.81 2996.92,1497.43 2992.29,1500.21 2985.82,1501.13"/>
    </edge>
    <edge id=":5_4" function="internal">
        <lane id=":5_4_0" index="0" speed="50.00" length="2.69" shape="3000.62,1486.33 2999.79,1487.57 2998.97,1487.98 2998.72,1487.86"/>
    </edge>
    <edge id=":5_10" function="internal">
        <lane id=":5_10_0" index="0" speed="50.00" length="2.13" shape="2998.72,1487.86 2998.14,1487.57 2997.32,1486.33"/>
    </edge>
    <edge id=":5_5" function="internal">
        <lane id=":5_5_0" index="0" speed="50.00" length="10.56" shape="2985.82,1487.93 2986.52,1487.83 2987.02,1487.53 2987.32,1487.03 2987.42,1486.33"/>
        <lane id=":5_5_1" index="1" speed="50.00" length="10.56" shape="2985.82,1491.23 2987.96,1490.93 2989.49,1490.01 2990.41,1488.48 2990.72,1486.33"/>
        <lane id=":5_5_2" index="2" speed="50.00" length="10.56" shape="2985.82,1494.53 2989.41,1494.02 2991.97,1492.48 2993.51,1489.92 2994.02,1486.33"/>
        <lane id=":5_5_3" index="3" speed="50.00" length="10.56" shape="2985.82,1497.83 2990.85,1497.11 2994.44,1494.96 2996.60,1491.36 2997.32,1486.33"/>
    </edge>
    <edge id=":5_9" function="internal">
        <lane id=":5_9_0" index="0" speed="50.00" length="2.20" shape="2985.82,1497.83 2987.06,1498.66 2987.37,1499.29"/>
    </edge>
    <edge id=":5_11" function="internal">
        <lane id=":5_11_0" index="0" speed="50.00" length="2.62" shape="2987.37,1499.29 2987.47,1499.48 2987.06,1500.31 2985.82,1501.13"/>
    </edge>
    <edge id=":6_0" function="internal">
        <lane id=":6_0_0" index="0" speed="50.00" length="31.85" shape="1487.94,13.15 1489.48,2.34 1494.11,-5.38 1501.83,-10.01 1512.64,-11.55"/>
        <lane id=":6_0_1" index="1" speed="50.00" length="31.85" shape="1491.24,13.15 1492.58,3.79 1496.59,-2.90 1503.28,-6.91 1512.64,-8.25"/>
        <lane id=":6_0_2" index="2" speed="50.00" length="31.85" shape="1494.54,13.15 1495.67,5.23 1499.06,-0.42 1504.72,-3.82 1512.64,-4.95"/>
        <lane id=":6_0_3" index="3" speed="50.00" length="31.85" shape="1497.84,13.15 1498.76,6.68 1501.54,2.05 1506.16,-0.72 1512.64,-1.65"/>
    </edge>
    <edge id=":6_4" function="internal">
        <lane id=":6_4_0" index="0" speed="50.00" length="2.69" shape="1497.84,13.15 1498.66,11.91 1499.49,11.50 1499.74,11.63"/>
    </edge>
    <edge id=":6_10" function="internal">
        <lane id=":6_10_0" index="0" speed="50.00" length="2.13" shape="1499.74,11.63 1500.31,11.91 1501.14,13.15"/>
    </edge>
    <edge id=":6_5" function="internal">
        <lane id=":6_5_0" index="0" speed="50.00" length="10.56" shape="1512.64,11.55 1511.94,11.65 1511.44,11.95 1511.14,12.45 1511.04,13.15"/>
        <lane id=":6_5_1" index="1" speed="50.00" length="10.56" shape="1512.64,8.25 1510.49,8.56 1508.96,9.48 1508.04,11.01 1507.74,13.15"/>
        <lane id=":6_5_2" index="2" speed="50.00" length="10.56" shape="1512.64,4.95 1509.05,5.46 1506.49,7.00 1504.95,9.56 1504.44,13.15"/>
        <lane id=":6_5_3" index="3" speed="50.00" length="10.56" shape="1512.64,1.65 1507.61,2.37 1504.01,4.53 1501.86,8.12 1501.14,13.15"/>
    </edge>
    <edge id=":6_9" function="internal">
        <lane id=":6_9_0" index="0" speed="50.00" length="2.20" shape="1512.64,1.65 1511.40,0.83 1511.08,0.19"/>
    </edge>
    <edge id=":6_11" function="internal">
        <lane id=":6_11_0" index="0" speed="50.00" length="2.62" shape="1511.08,0.19 1510.99,0.00 1511.40,-0.82 1512.64,-1.65"/>
    </edge>
    <edge id=":7_0" function="internal">
        <lane id=":7_0_0" index="0" speed="50.00" length="10.56" shape="2987.42,13.15 2987.32,12.45 2987.02,11.95 2986.52,11.65 2985.82,11.55"/>
        <lane id=":7_0_1" index="1" speed="50.00" length="10.56" shape="2990.72,13.15 2990.41,11.01 2989.50,9.48 2987.96,8.56 2985.82,8.25"/>
        <lane id=":7_0_2" index="2" speed="50.00" length="10.56" shape="2994.02,13.15 2993.51,9.57 2991.97,7.00 2989.41,5.47 2985.82,4.95"/>
        <lane id=":7_0_3" index="3" speed="50.00" length="10.56" shape="2997.32,13.15 2996.60,8.12 2994.45,4.53 2990.85,2.37 2985.82,1.65"/>
    </edge>
    <edge id=":7_4" function="internal">
        <lane id=":7_4_0" index="0" speed="50.00" length="2.20" shape="2997.32,13.15 2998.15,11.92 2998.78,11.60"/>
    </edge>
    <edge id=":7_10" function="internal">
        <lane id=":7_10_0" index="0" speed="50.00" length="2.62" shape="2998.78,11.60 2998.97,11.50 2999.80,11.92 3000.62,13.15"/>
    </edge>
    <edge id=":7_5" function="internal">
        <lane id=":7_5_0" index="0" speed="50.00" length="31.85" shape="2985.82,-11.55 2996.63,-10.00 3004.35,-5.37 3008.98,2.35 3010.52,13.15"/>
        <lane id=":7_5_1" index="1" speed="50.00" length="31.85" shape="2985.82,-8.25 2995.18,-6.91 3001.87,-2.90 3005.88,3.79 3007.22,13.15"/>
        <lane id=":7_5_2" index="2" speed="50.00" length="31.85" shape="2985.82,-4.95 2993.74,-3.81 2999.40,-0.42 3002.79,5.24 3003.92,13.15"/>
        <lane id=":7_5_3" index="3" speed="50.00" length="31.85" shape="2985.82,-1.65 2992.30,-0.72 2996.92,2.05 2999.70,6.68 3000.62,13.15"/>
    </edge>
    <edge id=":7_9" function="internal">
        <lane id=":7_9_0" index="0" speed="50.00" length="2.69" shape="2985.82,-1.65 2987.06,-0.82 2987.47,0.00 2987.34,0.26"/>
    </edge>
    <edge id=":7_11" function="internal">
        <lane id=":7_11_0" index="0" speed="50.00" length="2.13" shape="2987.34,0.26 2987.06,0.83 2985.82,1.65"/>
    </edge>

    <edge id="1-2" from="1" to="2" priority="25">
        <lane id="1-2_0" index="0" speed="50.00" length="1473.19" shape="13.15,2987.42 1486.34,2987.42"/>
        <lane id="1-2_1" index="1" speed="50.00" length="1473.19" shape="13.15,2990.72 1486.34,2990.72"/>
        <lane id="1-2_2" index="2" speed="50.00" length="1473.19" shape="13.15,2994.02 1486.34,2994.02"/>
        <lane id="1-2_3" index="3" speed="50.00" length="1473.19" shape="13.15,2997.32 1486.34,2997.32"/>
    </edge>
    <edge id="1-3" from="1" to="3" priority="25">
        <lane id="1-3_0" index="0" speed="50.00" length="1473.19" shape="-11.55,2985.82 -11.55,1512.63"/>
        <lane id="1-3_1" index="1" speed="50.00" length="1473.19" shape="-8.25,2985.82 -8.25,1512.63"/>
        <lane id="1-3_2" index="2" speed="50.00" length="1473.19" shape="-4.95,2985.82 -4.95,1512.63"/>
        <lane id="1-3_3" index="3" speed="50.00" length="1473.19" shape="-1.65,2985.82 -1.65,1512.63"/>
    </edge>
    <edge id="2-1" from="2" to="1" priority="25">
        <lane id="2-1_0" index="0" speed="50.00" length="1473.19" shape="1486.34,3010.52 13.15,3010.52"/>
        <lane id="2-1_1" index="1" speed="50.00" length="1473.19" shape="1486.34,3007.22 13.15,3007.22"/>
        <lane id="2-1_2" index="2" speed="50.00" length="1473.19" shape="1486.34,3003.92 13.15,3003.92"/>
        <lane id="2-1_3" index="3" speed="50.00" length="1473.19" shape="1486.34,3000.62 13.15,3000.62"/>
    </edge>
    <edge id="2-4" from="2" to="4" priority="25">
        <lane id="2-4_0" index="0" speed="50.00" length="1471.68" shape="1487.94,2985.82 1487.94,1514.13"/>
        <lane id="2-4_1" index="1" speed="50.00" length="1471.68" shape="1491.24,2985.82 1491.24,1514.13"/>
        <lane id="2-4_2" index="2" speed="50.00" length="1471.68" shape="1494.54,2985.82 1494.54,1514.13"/>
        <lane id="2-4_3" index="3" speed="50.00" length="1471.68" shape="1497.84,2985.82 1497.84,1514.13"/>
    </edge>
    <edge id="3-1" from="3" to="1" priority="25">
        <lane id="3-1_0" index="0" speed="50.00" length="1473.19" shape="11.55,1512.63 11.55,2985.82"/>
        <lane id="3-1_1" index="1" speed="50.00" length="1473.19" shape="8.25,1512.63 8.25,2985.82"/>
        <lane id="3-1_2" index="2" speed="50.00" length="1473.19" shape="4.95,1512.63 4.95,2985.82"/>
        <lane id="3-1_3" index="3" speed="50.00" length="1473.19" shape="1.65,1512.63 1.65,2985.82"/>
    </edge>
    <edge id="3-4" from="3" to="4" priority="25">
        <lane id="3-4_0" index="0" speed="50.00" length="1471.69" shape="13.15,1487.93 1484.84,1487.93"/>
        <lane id="3-4_1" index="1" speed="50.00" length="1471.69" shape="13.15,1491.23 1484.84,1491.23"/>
        <lane id="3-4_2" index="2" speed="50.00" length="1471.69" shape="13.15,1494.53 1484.84,1494.53"/>
        <lane id="3-4_3" index="3" speed="50.00" length="1471.69" shape="13.15,1497.83 1484.84,1497.83"/>
    </edge>
    <edge id="4-2" from="4" to="2" priority="25">
        <lane id="4-2_0" index="0" speed="50.00" length="1471.68" shape="1511.04,1514.13 1511.04,2985.82"/>
        <lane id="4-2_1" index="1" speed="50.00" length="1471.68" shape="1507.74,1514.13 1507.74,2985.82"/>
        <lane id="4-2_2" index="2" speed="50.00" length="1471.68" shape="1504.44,1514.13 1504.44,2985.82"/>
        <lane id="4-2_3" index="3" speed="50.00" length="1471.68" shape="1501.14,1514.13 1501.14,2985.82"/>
    </edge>
    <edge id="4-3" from="4" to="3" priority="25">
        <lane id="4-3_0" index="0" speed="50.00" length="1471.69" shape="1484.84,1511.03 13.15,1511.03"/>
        <lane id="4-3_1" index="1" speed="50.00" length="1471.69" shape="1484.84,1507.73 13.15,1507.73"/>
        <lane id="4-3_2" index="2" speed="50.00" length="1471.69" shape="1484.84,1504.43 13.15,1504.43"/>
        <lane id="4-3_3" index="3" speed="50.00" length="1471.69" shape="1484.84,1501.13 13.15,1501.13"/>
    </edge>
    <edge id="4-5" from="4" to="5" priority="25">
        <lane id="4-5_0" index="0" speed="50.00" length="1471.68" shape="1514.14,1487.93 2985.82,1487.93"/>
        <lane id="4-5_1" index="1" speed="50.00" length="1471.68" shape="1514.14,1491.23 2985.82,1491.23"/>
        <lane id="4-5_2" index="2" speed="50.00" length="1471.68" shape="1514.14,1494.53 2985.82,1494.53"/>
        <lane id="4-5_3" index="3" speed="50.00" length="1471.68" shape="1514.14,1497.83 2985.82,1497.83"/>
    </edge>
    <edge id="4-6" from="4" to="6" priority="25">
        <lane id="4-6_0" index="0" speed="50.00" length="1471.68" shape="1487.94,1484.83 1487.94,13.15"/>
        <lane id="4-6_1" index="1" speed="50.00" length="1471.68" shape="1491.24,1484.83 1491.24,13.15"/>
        <lane id="4-6_2" index="2" speed="50.00" length="1471.68" shape="1494.54,1484.83 1494.54,13.15"/>
        <lane id="4-6_3" index="3" speed="50.00" length="1471.68" shape="1497.84,1484.83 1497.84,13.15"/>
    </edge>
    <edge id="5-4" from="5" to="4" priority="25">
        <lane id="5-4_0" index="0" speed="50.00" length="1471.68" shape="2985.82,1511.03 1514.14,1511.03"/>
        <lane id="5-4_1" index="1" speed="50.00" length="1471.68" shape="2985.82,1507.73 1514.14,1507.73"/>
        <lane id="5-4_2" index="2" speed="50.00" length="1471.68" shape="2985.82,1504.43 1514.14,1504.43"/>
        <lane id="5-4_3" index="3" speed="50.00" length="1471.68" shape="2985.82,1501.13 1514.14,1501.13"/>
    </edge>
    <edge id="5-7" from="5" to="7" priority="25">
        <lane id="5-7_0" index="0" speed="50.00" length="1473.18" shape="2987.42,1486.33 2987.42,13.15"/>
        <lane id="5-7_1" index="1" speed="50.00" length="1473.18" shape="2990.72,1486.33 2990.72,13.15"/>
        <lane id="5-7_2" index="2" speed="50.00" length="1473.18" shape="2994.02,1486.33 2994.02,13.15"/>
        <lane id="5-7_3" index="3" speed="50.00" length="1473.18" shape="2997.32,1486.33 2997.32,13.15"/>
    </edge>
    <edge id="6-4" from="6" to="4" priority="25">
        <lane id="6-4_0" index="0" speed="50.00" length="1471.68" shape="1511.04,13.15 1511.04,1484.83"/>
        <lane id="6-4_1" index="1" speed="50.00" length="1471.68" shape="1507.74,13.15 1507.74,1484.83"/>
        <lane id="6-4_2" index="2" speed="50.00" length="1471.68" shape="1504.44,13.15 1504.44,1484.83"/>
        <lane id="6-4_3" index="3" speed="50.00" length="1471.68" shape="1501.14,13.15 1501.14,1484.83"/>
    </edge>
    <edge id="6-7" from="6" to="7" priority="25">
        <lane id="6-7_0" index="0" speed="50.00" length="1473.18" shape="1512.64,-11.55 2985.82,-11.55"/>
        <lane id="6-7_1" index="1" speed="50.00" length="1473.18" shape="1512.64,-8.25 2985.82,-8.25"/>
        <lane id="6-7_2" index="2" speed="50.00" length="1473.18" shape="1512.64,-4.95 2985.82,-4.95"/>
        <lane id="6-7_3" index="3" speed="50.00" length="1473.18" shape="1512.64,-1.65 2985.82,-1.65"/>
    </edge>
    <edge id="7-5" from="7" to="5" priority="25">
        <lane id="7-5_0" index="0" speed="50.00" length="1473.18" shape="3010.52,13.15 3010.52,1486.33"/>
        <lane id="7-5_1" index="1" speed="50.00" length="1473.18" shape="3007.22,13.15 3007.22,1486.33"/>
        <lane id="7-5_2" index="2" speed="50.00" length="1473.18" shape="3003.92,13.15 3003.92,1486.33"/>
        <lane id="7-5_3" index="3" speed="50.00" length="1473.18" shape="3000.62,13.15 3000.62,1486.33"/>
    </edge>
    <edge id="7-6" from="7" to="6" priority="25">
        <lane id="7-6_0" index="0" speed="50.00" length="1473.18" shape="2985.82,11.55 1512.64,11.55"/>
        <lane id="7-6_1" index="1" speed="50.00" length="1473.18" shape="2985.82,8.25 1512.64,8.25"/>
        <lane id="7-6_2" index="2" speed="50.00" length="1473.18" shape="2985.82,4.95 1512.64,4.95"/>
        <lane id="7-6_3" index="3" speed="50.00" length="1473.18" shape="2985.82,1.65 1512.64,1.65"/>
    </edge>

    <tlLogic id="4" type="static" programID="0" offset="0">
        <phase duration="7" state="rrrrrrrGGGGGggrrrrrrrGGGGGgg"/>
        <phase duration="16" state="rrrrrrryyyyyggrrrrrrryyyyygg"/>
        <phase duration="6" state="rrrrrrrrrrrrGGrrrrrrrrrrrrGG"/>
        <phase duration="16" state="rrrrrrrrrrrryyrrrrrrrrrrrryy"/>
        <phase duration="7" state="GGGGGggrrrrrrrGGGGGggrrrrrrr"/>
        <phase duration="16" state="yyyyyggrrrrrrryyyyyggrrrrrrr"/>
        <phase duration="6" state="rrrrrGGrrrrrrrrrrrrGGrrrrrrr"/>
        <phase duration="16" state="rrrrryyrrrrrrrrrrrryyrrrrrrr"/>
    </tlLogic>

    <junction id="1" type="priority" x="0.00" y="2998.97" incLanes="2-1_0 2-1_1 2-1_2 2-1_3 3-1_0 3-1_1 3-1_2 3-1_3" intLanes=":1_0_0 :1_0_1 :1_0_2 :1_0_3 :1_10_0 :1_5_0 :1_5_1 :1_5_2 :1_5_3 :1_11_0" shape="13.15,3012.12 13.15,2985.82 -13.15,2985.82">
        <request index="0" response="0000000000" foes="1000000000" cont="0"/>
        <request index="1" response="0000000000" foes="1000000000" cont="0"/>
        <request index="2" response="0000000000" foes="1000000000" cont="0"/>
        <request index="3" response="0000000000" foes="1000000000" cont="0"/>
        <request index="4" response="0111100000" foes="0111100000" cont="1"/>
        <request index="5" response="0000000000" foes="0000010000" cont="0"/>
        <request index="6" response="0000000000" foes="0000010000" cont="0"/>
        <request index="7" response="0000000000" foes="0000010000" cont="0"/>
        <request index="8" response="0000000000" foes="0000010000" cont="0"/>
        <request index="9" response="0000001111" foes="0000001111" cont="1"/>
    </junction>
    <junction id="2" type="priority" x="1499.49" y="2998.97" incLanes="4-2_0 4-2_1 4-2_2 4-2_3 1-2_0 1-2_1 1-2_2 1-2_3" intLanes=":2_0_0 :2_0_1 :2_0_2 :2_0_3 :2_10_0 :2_5_0 :2_5_1 :2_5_2 :2_5_3 :2_11_0" shape="1512.64,2985.82 1486.34,2985.82 1486.34,3012.12">
        <request index="0" response="0000000000" foes="1000000000" cont="0"/>
        <request index="1" response="0000000000" foes="1000000000" cont="0"/>
        <request index="2" response="0000000000" foes="1000000000" cont="0"/>
        <request index="3" response="0000000000" foes="1000000000" cont="0"/>
        <request index="4" response="0111100000" foes="0111100000" cont="1"/>
        <request index="5" response="0000000000" foes="0000010000" cont="0"/>
        <request index="6" response="0000000000" foes="0000010000" cont="0"/>
        <request index="7" response="0000000000" foes="0000010000" cont="0"/>
        <request index="8" response="0000000000" foes="0000010000" cont="0"/>
        <request index="9" response="0000001111" foes="0000001111" cont="1"/>
    </junction>
    <junction id="3" type="priority" x="0.00" y="1499.48" incLanes="1-3_0 1-3_1 1-3_2 1-3_3 4-3_0 4-3_1 4-3_2 4-3_3" intLanes=":3_0_0 :3_0_1 :3_0_2 :3_0_3 :3_10_0 :3_5_0 :3_5_1 :3_5_2 :3_5_3 :3_11_0" shape="-13.15,1512.63 13.15,1512.63 13.15,1486.33">
        <request index="0" response="0000000000" foes="1000000000" cont="0"/>
        <request index="1" response="0000000000" foes="1000000000" cont="0"/>
        <request index="2" response="0000000000" foes="1000000000" cont="0"/>
        <request index="3" response="0000000000" foes="1000000000" cont="0"/>
        <request index="4" response="0111100000" foes="0111100000" cont="1"/>
        <request index="5" response="0000000000" foes="0000010000" cont="0"/>
        <request index="6" response="0000000000" foes="0000010000" cont="0"/>
        <request index="7" response="0000000000" foes="0000010000" cont="0"/>