<nodes>
	<node id="1" x="-1500.0" y="0.0" type="priority"/>
	<node id="2" x="0.0" y="0.0" type="traffic_light"/>
	<node id="3" x="0.0" y="1500.0" type="priority"/> 


</nodes>

