<flows>
	<flow id="flowA" from="1-2" to="2-3" begin="0" end="3000" number="50"/>

</flows>
