<edges>   
<!-- Layer1 -->
	<edge id="1-2" from="1" to="2" priority="75"  numLanes="1" speed="25" />
	<edge id="2-3" from="2" to="3" priority="75"  numLanes="1" speed="25" />


</edges>  

