<nodes>   
	<node id="1" x="116.30941000" y="0.00000000" type="priority"/>
	<node id="2" x="116.31390150" y="0.00000000" type="priority"/>
	<node id="3" x="116.30941000" y="0.00452177" type="priority"/>
	<node id="4" x="116.31390150" y="0.00452177" type="traffic_light"/>
	<node id="5" x="116.31839300" y="0.00452177" type="priority"/>
	<node id="6" x="116.31390150" y="0.00904353" type="priority"/>
	<node id="7" x="116.31839300" y="0.00904353" type="priority"/>
	
</nodes>

