<flows>
	<flow id="flowA" from="2-4" to="4-6" begin="0" end="7000" number="120"/>

</flows>
