<?xml version="1.0" encoding="UTF-8"?>

<!-- generated on Tue Mar 14 11:58:46 2017 by SUMO netconvert Version 0.23.0
<?xml version="1.0" encoding="UTF-8"?>

<configuration xmlns:xsi="http://www.w3.org/2001/XMLSchema-instance" xsi:noNamespaceSchemaLocation="http://sumo.dlr.de/xsd/netconvertConfiguration.xsd">

    <input>
        <node-files value="test4.nod.xml"/>
        <edge-files value="test4.edg.xml"/>
    </input>

    <output>
        <output-file value="test4.net.xml"/>
    </output>

    <projection>
        <proj.utm value="true"/>
    </projection>

</configuration>
-->

<net version="0.13" xmlns:xsi="http://www.w3.org/2001/XMLSchema-instance" xsi:noNamespaceSchemaLocation="http://sumo.dlr.de/xsd/net_file.xsd">

    <location netOffset="-422153.09,499.83" convBoundary="0.00,0.00,1999.31,999.66" origBoundary="116.300427,-0.004522,116.318393,0.004522" projParameter="+proj=utm +zone=50 +ellps=WGS84 +datum=WGS84 +units=m +no_defs"/>

    <edge id=":1_0" function="internal">
        <lane id=":1_0_0" index="0" speed="30.00" length="2.58" shape="1.65,996.41 1.75,997.11 2.05,997.61 2.55,997.91 3.25,998.01"/>
    </edge>
    <edge id=":10_0" function="internal">
        <lane id=":10_0_0" index="0" speed="30.00" length="0.10" shape="499.83,1.65 499.83,1.65"/>
    </edge>
    <edge id=":11_0" function="internal">
        <lane id=":11_0_0" index="0" speed="30.00" length="2.58" shape="3.25,1.65 2.55,1.75 2.05,2.05 1.75,2.55 1.65,3.25"/>
    </edge>
    <edge id=":12_0" function="internal">
        <lane id=":12_0_0" index="0" speed="30.00" length="0.10" shape="1.65,499.83 1.65,499.83"/>
    </edge>
    <edge id=":16_0" function="internal">
        <lane id=":16_0_0" index="0" speed="40.00" length="2.58" shape="201.58,796.48 201.68,797.18 201.98,797.68 202.48,797.98 203.18,798.08"/>
    </edge>
    <edge id=":17_0" function="internal">
        <lane id=":17_0_0" index="0" speed="40.00" length="2.58" shape="696.51,798.08 697.21,797.98 697.71,797.68 698.01,797.18 698.11,796.48"/>
    </edge>
    <edge id=":18_0" function="internal">
        <lane id=":18_0_0" index="0" speed="40.00" length="2.58" shape="698.11,303.15 698.01,302.45 697.71,301.95 697.21,301.65 696.51,301.55"/>
    </edge>
    <edge id=":19_0" function="internal">
        <lane id=":19_0_0" index="0" speed="40.00" length="2.58" shape="203.18,301.55 202.48,301.65 201.98,301.95 201.68,302.45 201.58,303.15"/>
    </edge>
    <edge id=":2_0" function="internal">
        <lane id=":2_0_0" index="0" speed="30.00" length="0.10" shape="499.83,998.01 499.83,998.01"/>
    </edge>
    <edge id=":20_0" function="internal">
        <lane id=":20_0_0" index="0" speed="50.00" length="2.58" shape="899.64,801.38 898.94,801.28 898.44,800.98 898.14,800.48 898.04,799.78"/>
    </edge>
    <edge id=":21_0" function="internal">
        <lane id=":21_0_0" index="0" speed="50.00" length="2.58" shape="1401.17,799.78 1401.07,800.48 1400.77,800.98 1400.27,801.28 1399.57,801.38"/>
    </edge>
    <edge id=":22_0" function="internal">
        <lane id=":22_0_0" index="0" speed="50.00" length="2.58" shape="1399.57,298.25 1400.27,298.35 1400.77,298.65 1401.07,299.15 1401.17,299.85"/>
    </edge>
    <edge id=":23_0" function="internal">
        <lane id=":23_0_0" index="0" speed="50.00" length="2.58" shape="898.04,299.85 898.14,299.15 898.44,298.65 898.94,298.35 899.64,298.25"/>
    </edge>
    <edge id=":24_0" function="internal">
        <lane id=":24_0_0" index="0" speed="30.00" length="2.58" shape="1601.10,796.48 1601.20,797.18 1601.50,797.68 1602.00,797.98 1602.70,798.08"/>
    </edge>
    <edge id=":25_0" function="internal">
        <lane id=":25_0_0" index="0" speed="30.00" length="2.58" shape="1896.10,798.08 1896.80,797.98 1897.30,797.68 1897.60,797.18 1897.70,796.48"/>
    </edge>
    <edge id=":26_0" function="internal">
        <lane id=":26_0_0" index="0" speed="30.00" length="2.58" shape="1897.70,303.15 1897.60,302.45 1897.30,301.95 1896.80,301.65 1896.10,301.55"/>
    </edge>
    <edge id=":27_0" function="internal">
        <lane id=":27_0_0" index="0" speed="30.00" length="2.58" shape="1602.70,301.55 1602.00,301.65 1601.50,301.95 1601.20,302.45 1601.10,303.15"/>
    </edge>
    <edge id=":3_0" function="internal">
        <lane id=":3_0_0" index="0" speed="30.00" length="0.10" shape="999.66,998.01 999.66,998.01"/>
    </edge>
    <edge id=":4_0" function="internal">
        <lane id=":4_0_0" index="0" speed="30.00" length="0.10" shape="1499.49,998.01 1499.49,998.01"/>
    </edge>
    <edge id=":5_0" function="internal">
        <lane id=":5_0_0" index="0" speed="30.00" length="2.58" shape="1996.06,998.01 1996.76,997.91 1997.26,997.61 1997.56,997.11 1997.66,996.41"/>
    </edge>
    <edge id=":6_0" function="internal">
        <lane id=":6_0_0" index="0" speed="30.00" length="0.10" shape="1997.66,499.83 1997.66,499.83"/>
    </edge>
    <edge id=":7_0" function="internal">
        <lane id=":7_0_0" index="0" speed="30.00" length="2.58" shape="1997.66,3.25 1997.56,2.55 1997.26,2.05 1996.76,1.75 1996.06,1.65"/>
    </edge>
    <edge id=":8_0" function="internal">
        <lane id=":8_0_0" index="0" speed="30.00" length="0.10" shape="1499.49,1.65 1499.49,1.65"/>
    </edge>
    <edge id=":9_0" function="internal">
        <lane id=":9_0_0" index="0" speed="30.00" length="0.10" shape="999.66,1.65 999.66,1.65"/>
    </edge>

    <edge id="1-2" from="1" to="2" priority="75">
        <lane id="1-2_0" index="0" speed="30.00" length="496.58" shape="3.25,998.01 499.83,998.01"/>
    </edge>
    <edge id="10-11" from="10" to="11" priority="75">
        <lane id="10-11_0" index="0" speed="30.00" length="496.58" shape="499.83,1.65 3.25,1.65"/>
    </edge>
    <edge id="11-12" from="11" to="12" priority="75">
        <lane id="11-12_0" index="0" speed="30.00" length="496.58" shape="1.65,3.25 1.65,499.83"/>
    </edge>
    <edge id="12-1" from="12" to="1" priority="75">
        <lane id="12-1_0" index="0" speed="30.00" length="496.58" shape="1.65,499.83 1.65,996.41"/>
    </edge>
    <edge id="16-17" from="16" to="17" priority="75">
        <lane id="16-17_0" index="0" speed="40.00" length="493.33" shape="203.18,798.08 696.51,798.08"/>
    </edge>
    <edge id="17-18" from="17" to="18" priority="75">
        <lane id="17-18_0" index="0" speed="40.00" length="493.33" shape="698.11,796.48 698.11,303.15"/>
    </edge>
    <edge id="18-19" from="18" to="19" priority="75">
        <lane id="18-19_0" index="0" speed="40.00" length="493.33" shape="696.51,301.55 203.18,301.55"/>
    </edge>
    <edge id="19-16" from="19" to="16" priority="75">
        <lane id="19-16_0" index="0" speed="40.00" length="493.33" shape="201.58,303.15 201.58,796.48"/>
    </edge>
    <edge id="2-3" from="2" to="3" priority="75">
        <lane id="2-3_0" index="0" speed="30.00" length="499.83" shape="499.83,998.01 999.66,998.01"/>
    </edge>
    <edge id="20-23" from="20" to="23" priority="75">
        <lane id="20-23_0" index="0" speed="50.00" length="499.93" shape="898.04,799.78 898.04,299.85"/>
    </edge>
    <edge id="21-20" from="21" to="20" priority="75">
        <lane id="21-20_0" index="0" speed="50.00" length="499.93" shape="1399.57,801.38 899.64,801.38"/>
    </edge>
    <edge id="22-21" from="22" to="21" priority="75">
        <lane id="22-21_0" index="0" speed="50.00" length="499.93" shape="1401.17,299.85 1401.17,799.78"/>
    </edge>
    <edge id="23-22" from="23" to="22" priority="75">
        <lane id="23-22_0" index="0" speed="50.00" length="499.93" shape="899.64,298.25 1399.57,298.25"/>
    </edge>
    <edge id="24-25" from="24" to="25" priority="75">
        <lane id="24-25_0" index="0" speed="30.00" length="293.40" shape="1602.70,798.08 1896.10,798.08"/>
    </edge>
    <edge id="25-26" from="25" to="26" priority="75">
        <lane id="25-26_0" index="0" speed="30.00" length="493.33" shape="1897.70,796.48 1897.70,303.15"/>
    </edge>
    <edge id="26-27" from="26" to="27" priority="75">
        <lane id="26-27_0" index="0" speed="30.00" length="293.40" shape="1896.10,301.55 1602.70,301.55"/>
    </edge>
    <edge id="27-24" from="27" to="24" priority="75">
        <lane id="27-24_0" index="0" speed="30.00" length="493.33" shape="1601.10,303.15 1601.10,796.48"/>
    </edge>
    <edge id="3-4" from="3" to="4" priority="75">
        <lane id="3-4_0" index="0" speed="30.00" length="499.83" shape="999.66,998.01 1499.49,998.01"/>
    </edge>
    <edge id="4-5" from="4" to="5" priority="75">
        <lane id="4-5_0" index="0" speed="30.00" length="496.58" shape="1499.49,998.01 1996.06,998.01"/>
    </edge>
    <edge id="5-6" from="5" to="6" priority="75">
        <lane id="5-6_0" index="0" speed="30.00" length="496.58" shape="1997.66,996.41 1997.66,499.83"/>
    </edge>
    <edge id="6-7" from="6" to="7" priority="75">
        <lane id="6-7_0" index="0" speed="30.00" length="496.58" shape="1997.66,499.83 1997.66,3.25"/>
    </edge>
    <edge id="7-8" from="7" to="8" priority="75">
        <lane id="7-8_0" index="0" speed="30.00" length="496.58" shape="1996.06,1.65 1499.49,1.65"/>
    </edge>
    <edge id="8-9" from="8" to="9" priority="75">
        <lane id="8-9_0" index="0" speed="30.00" length="499.83" shape="1499.49,1.65 999.66,1.65"/>
    </edge>
    <edge id="9-10" from="9" to="10" priority="75">
        <lane id="9-10_0" index="0" speed="30.00" length="499.83" shape="999.66,1.65 499.83,1.65"/>
    </edge>

    <junction id="1" type="priority" x="0.00" y="999.66" incLanes="12-1_0" intLanes=":1_0_0" shape="3.25,999.61 3.25,996.41 0.05,996.41">
        <request index="0" response="0" foes="0" cont="0"/>
    </junction>
    <junction id="10" type="priority" x="499.83" y="0.00" incLanes="9-10_0" intLanes=":10_0_0" shape="499.83,3.25 499.83,0.05 499.83,3.25">
        <request index="0" response="0" foes="0" cont="0"/>
    </junction>
    <junction id="11" type="priority" x="0.00" y="0.00" incLanes="10-11_0" intLanes=":11_0_0" shape="0.05,3.25 3.25,3.25 3.25,0.05">
        <request index="0" response="0" foes="0" cont="0"/>
    </junction>
    <junction id="12" type="priority" x="0.00" y="499.83" incLanes="11-12_0" intLanes=":12_0_0" shape="0.05,499.83 3.25,499.83 0.05,499.83">
        <request index="0" response="0" foes="0" cont="0"/>
    </junction>
    <junction id="16" type="priority" x="199.93" y="799.73" incLanes="19-16_0" intLanes=":16_0_0" shape="203.18,799.68 203.18,796.48 199.98,796.48">
        <request index="0" response="0" foes="0" cont="0"/>
    </junction>
    <junction id="17" type="priority" x="699.76" y="799.73" incLanes="16-17_0" intLanes=":17_0_0" shape="699.71,796.48 696.51,796.48 696.51,799.68">
        <request index="0" response="0" foes="0" cont="0"/>
    </junction>
    <junction id="18" type="priority" x="699.76" y="299.90" incLanes="17-18_0" intLanes=":18_0_0" shape="696.51,303.15 699.71,303.15 696.51,299.95 696.51,303.15">
        <request index="0" response="0" foes="0" cont="0"/>
    </junction>
    <junction id="19" type="priority" x="199.93" y="299.90" incLanes="18-19_0" intLanes=":19_0_0" shape="199.98,303.15 203.18,303.15 203.18,299.95">
        <request index="0" response="0" foes="0" cont="0"/>
    </junction>
    <junction id="2" type="priority" x="499.83" y="999.66" incLanes="1-2_0" intLanes=":2_0_0" shape="499.83,999.61 499.83,996.41 499.83,999.61">
        <request index="0" response="0" foes="0" cont="0"/>
    </junction>
    <junction id="20" type="priority" x="899.69" y="799.73" incLanes="21-20_0" intLanes=":20_0_0" shape="899.64,802.98 899.64,799.78 896.44,799.78">
        <request index="0" response="0" foes="0" cont="0"/>
    </junction>
    <junction id="21" type="priority" x="1399.52" y="799.73" incLanes="22-21_0" intLanes=":21_0_0" shape="1402.77,799.78 1399.57,799.78 1399.57,802.98">
        <request index="0" response="0" foes="0" cont="0"/>
    </junction>
    <junction id="22" type="priority" x="1399.52" y="299.90" incLanes="23-22_0" intLanes=":22_0_0" shape="1399.57,299.85 1402.77,299.85 1399.57,296.65 1399.57,299.85">
        <request index="0" response="0" foes="0" cont="0"/>
    </junction>
    <junction id="23" type="priority" x="899.69" y="299.90" incLanes="20-23_0" intLanes=":23_0_0" shape="896.44,299.85 899.64,299.85 899.64,296.65">
        <request index="0" response="0" foes="0" cont="0"/>
    </junction>
    <junction id="24" type="priority" x="1599.45" y="799.73" incLanes="27-24_0" intLanes=":24_0_0" shape="1602.70,799.68 1602.70,796.48 1599.50,796.48">
        <request index="0" response="0" foes="0" cont="0"/>
    </junction>
    <junction id="25" type="priority" x="1899.35" y="799.73" incLanes="24-25_0" intLanes=":25_0_0" shape="1899.30,796.48 1896.10,796.48 1896.10,799.68">
        <request index="0" response="0" foes="0" cont="0"/>
    </junction>
    <junction id="26" type="priority" x="1899.35" y="299.90" incLanes="25-26_0" intLanes=":26_0_0" shape="1896.10,303.15 1899.30,303.15 1896.10,299.95 1896.10,303.15">
        <request index="0" response="0" foes="0" cont="0"/>
    </junction>
    <junction id="27" type="priority" x="1599.45" y="299.90" incLanes="26-27_0" intLanes=":27_0_0" shape="1599.50,303.15 1602.70,303.15 1602.70,299.95">
        <request index="0" response="0" foes="0" cont="0"/>
    </junction>
    <junction id="3" type="priority" x="999.66" y="999.66" incLanes="2-3_0" intLanes=":3_0_0" shape="999.66,999.61 999.66,996.41 999.66,999.61">
        <request index="0" response="0" foes="0" cont="0"/>
    </junction>
    <junction id="4" type="priority" x="1499.49" y="999.66" incLanes="3-4_0" intLanes=":4_0_0" shape="1499.49,999.61 1499.49,996.41 1499.49,999.61">
        <request index="0" response="0" foes="0" cont="0"/>
    </junction>
    <junction id="5" type="priority" x="1999.31" y="999.66" incLanes="4-5_0" intLanes=":5_0_0" shape="1999.26,996.41 1996.06,996.41 1996.06,999.61">
        <request index="0" response="0" foes="0" cont="0"/>
    </junction>
    <junction id="6" type="priority" x="1999.31" y="499.83" incLanes="5-6_0" intLanes=":6_0_0" shape="1996.06,499.83 1999.26,499.83 1996.06,499.83">
        <request index="0" response="0" foes="0" cont="0"/>
    </junction>
    <junction id="7" type="priority" x="1999.31" y="0.00" incLanes="6-7_0" intLanes=":7_0_0" shape="1996.06,3.25 1999.26,3.25 1996.06,0.05 1996.06,3.25">
        <request index="0" response="0" foes="0" cont="0"/>
    </junction>
    <junction id="8" type="priority" x="1499.49" y="0.00" incLanes="7-8_0" intLanes=":8_0_0" shape="1499.49,3.25 1499.49,0.05 1499.49,3.25">
        <request index="0" response="0" foes="0" cont="0"/>
    </junction>
    <junction id="9" type="priority" x="999.66" y="0.00" incLanes="8-9_0" intLanes=":9_0_0" shape="999.66,3.25 999.66,0.05 999.66,3.25">
        <request index="0" response="0" foes="0" cont="0"/>
    </junction>

    <connection from="1-2" to="2-3" fromLane="0" toLane="0" via=":2_0_0" dir="s" state="M"/>
    <connection from="10-11" to="11-12" fromLane="0" toLane="0" via=":11_0_0" dir="r" state="M"/>
    <connection from="11-12" to="12-1" fromLane="0" toLane="0" via=":12_0_0" dir="s" state="M"/>
    <connection from="12-1" to="1-2" fromLane="0" toLane="0" via=":1_0_0" dir="r" state="M"/>
    <connection from="16-17" to="17-18" fromLane="0" toLane="0" via=":17_0_0" dir="r" state="M"/>
    <connection from="17-18" to="18-19" fromLane="0" toLane="0" via=":18_0_0" dir="r" state="M"/>
    <connection from="18-19" to="19-16" fromLane="0" toLane="0" via=":19_0_0" dir="r" state="M"/>
    <connection from="19-16" to="16-17" fromLane="0" toLane="0" via=":16_0_0" dir="r" state="M"/>
    <connection from="2-3" to="3-4" fromLane="0" toLane="0" via=":3_0_0" dir="s" state="M"/>
    <connection from="20-23" to="23-22" fromLane="0" toLane="0" via=":23_0_0" dir="l" state="M"/>
    <connection from="21-20" to="20-23" fromLane="0" toLane="0" via=":20_0_0" dir="l" state="M"/>
    <connection from="22-21" to="21-20" fromLane="0" toLane="0" via=":21_0_0" dir="l" state="M"/>
    <connection from="23-22" to="22-21" fromLane="0" toLane="0" via=":22_0_0" dir="l" state="M"/>
    <connection from="24-25" to="25-26" fromLane="0" toLane="0" via=":25_0_0" dir="r" state="M"/>
    <connection from="25-26" to="26-27" fromLane="0" toLane="0" via=":26_0_0" dir="r" state="M"/>
    <connection from="26-27" to="27-24" fromLane="0" toLane="0" via=":27_0_0" dir="r" state="M"/>
    <connection from="27-24" to="24-25" fromLane="0" toLane="0" via=":24_0_0" dir="r" state="M"/>
    <connection from="3-4" to="4-5" fromLane="0" toLane="0" via=":4_0_0" dir="s" state="M"/>
    <connection from="4-5" to="5-6" fromLane="0" toLane="0" via=":5_0_0" dir="r" state="M"/>
    <connection from="5-6" to="6-7" fromLane="0" toLane="0" via=":6_0_0" dir="s" state="M"/>
    <connection from="6-7" to="7-8" fromLane="0" toLane="0" via=":7_0_0" dir="r" state="M"/>
    <connection from="7-8" to="8-9" fromLane="0" toLane="0" via=":8_0_0" dir="s" state="M"/>
    <connection from="8-9" to="9-10" fromLane="0" toLane="0" via=":9_0_0" dir="s" state="M"/>
    <connection from="9-10" to="10-11" fromLane="0" toLane="0" via=":10_0_0" dir="s" state="M"/>

    <connection from=":1_0" to="1-2" fromLane="0" toLane="0" dir="s" state="M"/>
    <connection from=":10_0" to="10-11" fromLane="0" toLane="0" dir="s" state="M"/>
    <connection from=":11_0" to="11-12" fromLane="0" toLane="0" dir="s" state="M"/>
    <connection from=":12_0" to="12-1" fromLane="0" toLane="0" dir="s" state="M"/>
    <connection from=":16_0" to="16-17" fromLane="0" toLane="0" dir="s" state="M"/>
    <connection from=":17_0" to="17-18" fromLane="0" toLane="0" dir="s" state="M"/>
    <connection from=":18_0" to="18-19" fromLane="0" toLane="0" dir="s" state="M"/>
    <connection from=":19_0" to="19-16" fromLane="0" toLane="0" dir="s" state="M"/>
    <connection from=":2_0" to="2-3" fromLane="0" toLane="0" dir="s" state="M"/>
    <connection from=":20_0" to="20-23" fromLane="0" toLane="0" dir="s" state="M"/>
    <connection from=":21_0" to="21-20" fromLane="0" toLane="0" dir="s" state="M"/>
    <connection from=":22_0" to="22-21" fromLane="0" toLane="0" dir="s" state="M"/>
    <connection from=":23_0" to="23-22" fromLane="0" toLane="0" dir="s" state="M"/>
    <connection from=":24_0" to="24-25" fromLane="0" toLane="0" dir="s" state="M"/>
    <connection from=":25_0" to="25-26" fromLane="0" toLane="0" dir="s" state="M"/>
    <connection from=":26_0" to="26-27" fromLane="0" toLane="0" dir="s" state="M"/>
    <connection from=":27_0" to="27-24" fromLane="0" toLane="0" dir="s" state="M"/>
    <connection from=":3_0" to="3-4" fromLane="0" toLane="0" dir="s" state="M"/>
    <connection from=":4_0" to="4-5" fromLane="0" toLane="0" dir="s" state="M"/>
    <connection from=":5_0" to="5-6" fromLane="0" toLane="0" dir="s" state="M"/>
    <connection from=":6_0" to="6-7" fromLane="0" toLane="0" dir="s" state="M"/>
    <connection from=":7_0" to="7-8" fromLane="0" toLane="0" dir="s" state="M"/>
    <connection from=":8_0" to="8-9" fromLane="0" toLane="0" dir="s" state="M"/>
    <connection from=":9_0" to="9-10" fromLane="0" toLane="0" dir="s" state="M"/>

</net>
