<?xml version="1.0" encoding="UTF-8"?>

<!-- generated on Tue Mar 21 16:27:20 2017 by SUMO netconvert Version 0.29.0
<?xml version="1.0" encoding="UTF-8"?>

<configuration xmlns:xsi="http://www.w3.org/2001/XMLSchema-instance" xsi:noNamespaceSchemaLocation="http://sumo.dlr.de/xsd/netconvertConfiguration.xsd">

    <input>
        <node-files value="test.nod.xml"/>
        <edge-files value="test.edg.xml"/>
    </input>

    <output>
        <output-file value="test.net.xml"/>
    </output>

    <projection>
        <proj.utm value="true"/>
    </projection>

</configuration>
-->

<net version="0.27" xmlns:xsi="http://www.w3.org/2001/XMLSchema-instance" xsi:noNamespaceSchemaLocation="http://sumo.dlr.de/xsd/net_file.xsd">

    <location netOffset="-423152.75,0.00" convBoundary="0.00,0.00,999.66,999.65" origBoundary="116.309410,0.000000,116.318393,0.009044" projParameter="+proj=utm +zone=50 +ellps=WGS84 +datum=WGS84 +units=m +no_defs"/>

    <edge id=":1_0" function="internal">
        <lane id=":1_0_0" index="0" speed="30.00" length="2.58" shape="-1.65,-0.05 -1.55,-0.75 -1.25,-1.25 -0.75,-1.55 -0.05,-1.65"/>
    </edge>
    <edge id=":2_0" function="internal">
        <lane id=":2_0_0" index="0" speed="30.00" length="2.58" shape="499.88,-1.65 500.58,-1.55 501.08,-1.25 501.38,-0.75 501.48,-0.05"/>
    </edge>
    <edge id=":3_0" function="internal">
        <lane id=":3_0_0" index="0" speed="30.00" length="2.58" shape="-0.05,501.48 -0.75,501.38 -1.25,501.08 -1.55,500.58 -1.65,499.88"/>
    </edge>
    <edge id=":4_0" function="internal">
        <lane id=":4_0_0" index="0" speed="30.00" length="5.00" shape="504.58,501.48 503.22,501.67 502.25,502.25 501.67,503.22 501.48,504.58"/>
    </edge>
    <edge id=":4_1" function="internal">
        <lane id=":4_1_0" index="0" speed="30.00" length="6.20" shape="504.58,501.48 498.38,501.48"/>
    </edge>
    <edge id=":4_2" function="internal">
        <lane id=":4_2_0" index="0" speed="30.00" length="6.20" shape="501.48,498.38 501.48,504.58"/>
    </edge>
    <edge id=":4_3" function="internal">
        <lane id=":4_3_0" index="0" speed="30.00" length="5.00" shape="501.48,498.38 501.28,499.73 500.70,500.70 499.73,501.28 498.38,501.48"/>
    </edge>
    <edge id=":5_0" function="internal">
        <lane id=":5_0_0" index="0" speed="30.00" length="2.58" shape="998.01,503.08 997.91,502.38 997.61,501.88 997.11,501.58 996.41,501.48"/>
    </edge>
    <edge id=":6_0" function="internal">
        <lane id=":6_0_0" index="0" speed="30.00" length="2.58" shape="501.48,996.40 501.58,997.10 501.88,997.60 502.38,997.90 503.08,998.00"/>
    </edge>
    <edge id=":7_0" function="internal">
        <lane id=":7_0_0" index="0" speed="30.00" length="2.58" shape="996.41,998.00 997.11,997.90 997.61,997.60 997.91,997.10 998.01,996.40"/>
    </edge>

    <edge id="1-2" from="1" to="2" priority="75">
        <lane id="1-2_0" index="0" speed="30.00" length="499.93" shape="-0.05,-1.65 499.88,-1.65"/>
    </edge>
    <edge id="2-4" from="2" to="4" priority="75">
        <lane id="2-4_0" index="0" speed="30.00" length="498.43" shape="501.48,-0.05 501.48,498.38"/>
    </edge>
    <edge id="3-1" from="3" to="1" priority="75">
        <lane id="3-1_0" index="0" speed="30.00" length="499.93" shape="-1.65,499.88 -1.65,-0.05"/>
    </edge>
    <edge id="4-3" from="4" to="3" priority="75">
        <lane id="4-3_0" index="0" speed="30.00" length="498.43" shape="498.38,501.48 -0.05,501.48"/>
    </edge>
    <edge id="4-6" from="4" to="6" priority="75">
        <lane id="4-6_0" index="0" speed="30.00" length="491.83" shape="501.48,504.58 501.48,996.40"/>
    </edge>
    <edge id="5-4" from="5" to="4" priority="75">
        <lane id="5-4_0" index="0" speed="30.00" length="491.83" shape="996.41,501.48 504.58,501.48"/>
    </edge>
    <edge id="6-7" from="6" to="7" priority="75">
        <lane id="6-7_0" index="0" speed="30.00" length="493.33" shape="503.08,998.00 996.41,998.00"/>
    </edge>
    <edge id="7-5" from="7" to="5" priority="75">
        <lane id="7-5_0" index="0" speed="30.00" length="493.33" shape="998.01,996.40 998.01,503.08"/>
    </edge>

    <tlLogic id="4" type="static" programID="0" offset="0">
        <phase duration="35" state="GGrr"/>
        <phase duration="10" state="yyrr"/>
        <phase duration="35" state="rrGG"/>
        <phase duration="10" state="rryy"/>
    </tlLogic>

    <junction id="1" type="priority" x="0.00" y="0.00" incLanes="3-1_0" intLanes=":1_0_0" shape="-3.25,-0.05 -0.05,-0.05 -0.05,-3.25">
        <request index="0" response="0" foes="0" cont="0"/>
    </junction>
    <junction id="2" type="priority" x="499.83" y="0.00" incLanes="1-2_0" intLanes=":2_0_0" shape="499.88,-0.05 503.08,-0.05 499.88,-3.25">
        <request index="0" response="0" foes="0" cont="0"/>
    </junction>
    <junction id="3" type="priority" x="0.00" y="499.83" incLanes="4-3_0" intLanes=":3_0_0" shape="-0.05,503.08 -0.05,499.88 -3.25,499.88">
        <request index="0" response="0" foes="0" cont="0"/>
    </junction>
    <junction id="4" type="traffic_light" x="499.83" y="499.83" incLanes="5-4_0 2-4_0" intLanes=":4_0_0 :4_1_0 :4_2_0 :4_3_0" shape="499.88,504.58 503.08,504.58 504.58,503.08 504.58,499.88 503.08,498.38 499.88,498.38 498.38,499.88 498.38,503.08">
        <request index="0" response="0000" foes="0100" cont="0"/>
        <request index="1" response="0000" foes="1100" cont="0"/>
        <request index="2" response="0011" foes="0011" cont="0"/>
        <request index="3" response="0010" foes="0010" cont="0"/>
    </junction>
    <junction id="5" type="priority" x="999.66" y="499.83" incLanes="7-5_0" intLanes=":5_0_0" shape="996.41,503.08 999.61,503.08 996.41,499.88">
        <request index="0" response="0" foes="0" cont="0"/>
    </junction>
    <junction id="6" type="priority" x="499.83" y="999.65" incLanes="4-6_0" intLanes=":6_0_0" shape="503.08,999.60 503.08,996.40 499.88,996.40">
        <request index="0" response="0" foes="0" cont="0"/>
    </junction>
    <junction id="7" type="priority" x="999.66" y="999.65" incLanes="6-7_0" intLanes=":7_0_0" shape="999.61,996.40 996.41,996.40 996.41,999.60">
        <request index="0" response="0" foes="0" cont="0"/>
    </junction>

    <connection from="1-2" to="2-4" fromLane="0" toLane="0" via=":2_0_0" dir="l" state="M"/>
    <connection from="2-4" to="4-6" fromLane="0" toLane="0" via=":4_2_0" tl="4" linkIndex="2" dir="s" state="o"/>
    <connection from="2-4" to="4-3" fromLane="0" toLane="0" via=":4_3_0" tl="4" linkIndex="3" dir="l" state="o"/>
    <connection from="3-1" to="1-2" fromLane="0" toLane="0" via=":1_0_0" dir="l" state="M"/>
    <connection from="4-3" to="3-1" fromLane="0" toLane="0" via=":3_0_0" dir="l" state="M"/>
    <connection from="4-6" to="6-7" fromLane="0" toLane="0" via=":6_0_0" dir="r" state="M"/>
    <connection from="5-4" to="4-6" fromLane="0" toLane="0" via=":4_0_0" tl="4" linkIndex="0" dir="r" state="o"/>
    <connection from="5-4" to="4-3" fromLane="0" toLane="0" via=":4_1_0" tl="4" linkIndex="1" dir="s" state="o"/>
    <connection from="6-7" to="7-5" fromLane="0" toLane="0" via=":7_0_0" dir="r" state="M"/>
    <connection from="7-5" to="5-4" fromLane="0" toLane="0" via=":5_0_0" dir="r" state="M"/>

    <connection from=":1_0" to="1-2" fromLane="0" toLane="0" dir="s" state="M"/>
    <connection from=":2_0" to="2-4" fromLane="0" toLane="0" dir="s" state="M"/>
    <connection from=":3_0" to="3-1" fromLane="0" toLane="0" dir="s" state="M"/>
    <connection from=":4_0" to="4-6" fromLane="0" toLane="0" dir="s" state="M"/>
    <connection from=":4_1" to="4-3" fromLane="0" toLane="0" dir="s" state="M"/>
    <connection from=":4_2" to="4-6" fromLane="0" toLane="0" dir="s" state="M"/>
    <connection from=":4_3" to="4-3" fromLane="0" toLane="0" dir="s" state="M"/>
    <connection from=":5_0" to="5-4" fromLane="0" toLane="0" dir="s" state="M"/>
    <connection from=":6_0" to="6-7" fromLane="0" toLane="0" dir="s" state="M"/>
    <connection from=":7_0" to="7-5" fromLane="0" toLane="0" dir="s" state="M"/>

</net>
