<edges>   
<!-- Layer1 -->
	<edge id="1-2" from="1" to="2" priority="75"  numLanes="1" speed="30" />
	<edge id="3-1" from="3" to="1" priority="75"  numLanes="1" speed="30" />
	<edge id="2-4" from="2" to="4" priority="75"  numLanes="1" speed="30" />
	<edge id="4-3" from="4" to="3" priority="75"  numLanes="1" speed="30" />
	<edge id="5-4" from="5" to="4" priority="75"  numLanes="1" speed="30" />
	<edge id="4-6" from="4" to="6" priority="75"  numLanes="1" speed="30" />
	<edge id="7-5" from="7" to="5" priority="75"  numLanes="1" speed="30" />
	<edge id="6-7" from="6" to="7" priority="75"  numLanes="1" speed="30" />


</edges>  

