<flows>
	<flow id="flowA" from="20-17" to="19-13" begin="0" end="3000" number="50"/>

</flows>
